/*--------------------------------*- C++ -*----------------------------------*\
| =========                 |                                                 |
| \\      /  F ield         | OpenFOAM: The Open Source CFD Toolbox           |
|  \\    /   O peration     | Version:  2.3.0                                 |
|   \\  /    A nd           | Web:      www.OpenFOAM.org                      |
|    \\/     M anipulation  |                                                 |
\*---------------------------------------------------------------------------*/
FoamFile
{
    version     2.0;
    format      ascii;
    class       volScalarField;
    object      p;
}
// * * * * * * * * * * * * * * * * * * * * * * * * * * * * * * * * * * * * * //

dimensions      [1 -1 -2 0 0 0 0];

internalField   uniform 101325;

boundaryField
{
    sphere
    {
        type           uniformFixedValue;
	uniformValue   sine;
	    uniformValueCoeffs
    	    {
    		frequency	100;
    		amplitude	1000;
    		scale		1;//(1 0 0);
    		level		101325;//(0 0 0);
    		t0		0;
	    }
    }
    
    free
    {
        type            waveTransmissive; //totalPressure;
        field		p;
        psi		thermo:psi;        
        rho		rho;
        phi		phi;
        gamma           1.4;           
        value           uniform 101325;
    }
    
    #include "cyc"
    
}

// ************************************************************************* //



