/*--------------------------------*- C++ -*----------------------------------*\
| =========                 |                                                 |
| \\      /  F ield         | OpenFOAM: The Open Source CFD Toolbox           |
|  \\    /   O peration     | Version:  1812                                  |
|   \\  /    A nd           | Web:      www.OpenFOAM.com                      |
|    \\/     M anipulation  |                                                 |
\*---------------------------------------------------------------------------*/
FoamFile
{
    version     1812;
    format      ascii;
    class       dictionary;
    object      blockMeshDict;
}

// * * * * * * * * * * * * * * * * * * * * * * * * * * * * * * * * * * * * * //

convertToMeters 1;

vertices
(
    (-5 -5  -5)
    ( 5 -5  -5)
    ( 5  5  -5)
    (-5  5  -5)
    (-5 -5   5)
    ( 5 -5   5)
    ( 5  5   5)
    (-5  5   5)
);

blocks
(
    hex (0 1 2 3 4 5 6 7) (15 15 15) simpleGrading (1 1 1)
);

edges
(
);

boundary
(
    free
    {
        type patch;
        faces
        (
            (0 4 7 3)
            (4 5 6 7)
            (0 3 2 1)
            (1 5 4 0)
            (2 6 5 1)
            (3 7 6 2)
        );
    }
);

mergePatchPairs
(
);

// ************************************************************************* //
