/*--------------------------------*- C++ -*----------------------------------*\
| =========                 |                                                 |
| \\      /  F ield         | OpenFOAM: The Open Source CFD Toolbox           |
|  \\    /   O peration     | Version:  2.3.0                                 |
|   \\  /    A nd           | Web:      www.OpenFOAM.org                      |
|    \\/     M anipulation  |                                                 |
\*---------------------------------------------------------------------------*/
FoamFile
{
    version     2.0;
    format      ascii;
    class       pointScalarField;
    object      pointDisplacement;
}
// * * * * * * * * * * * * * * * * * * * * * * * * * * * * * * * * * * * * * //

dimensions      [0 1 0 0 0 0 0];

internalField   uniform 0;

boundaryField
{
    sphere
    {
        type            uniformFixedValue;
        uniformValue sine;
        uniformValueCoeffs
        {
            amplitude	1e-3;
            frequency   100;
            scale       1;
            level       0;
        }
        value    	uniform 0;
    }
    free
    {
        type            uniformFixedValue;
        uniformValue    constant 0;
    }
}

// ************************************************************************* //
