/*--------------------------------*- C++ -*----------------------------------*\
| =========                 |                                                 |
| \\      /  F ield         | OpenFOAM: The Open Source CFD Toolbox           |
|  \\    /   O peration     | Version:  4.1                                   |
|   \\  /    A nd           | Web:      www.OpenFOAM.org                      |
|    \\/     M anipulation  |                                                 |
\*---------------------------------------------------------------------------*/
FoamFile
{
    version     2.0;
    format      ascii;
    class       polyBoundaryMesh;
    location    "constant/polyMesh";
    object      boundary;
}
// * * * * * * * * * * * * * * * * * * * * * * * * * * * * * * * * * * * * * //

3
(
    empty1
    {
        type            empty;
        inGroups        1(empty);
        nFaces          96000;
        startFace       95960;
    }
    free
    {
        type            patch;
        nFaces          40;
        startFace       191960;
    }
    sphere
    {
        type            wall;
        inGroups        1(wall);
        nFaces          40;
        startFace       192000;
    }
)

// ************************************************************************* //
