/*--------------------------------*- C++ -*----------------------------------*\
| =========                 |                                                 |
| \\      /  F ield         | OpenFOAM: The Open Source CFD Toolbox           |
|  \\    /   O peration     | Version:  v1912                                 |
|   \\  /    A nd           | Website:  www.openfoam.com                      |
|    \\/     M anipulation  |                                                 |
\*---------------------------------------------------------------------------*/
FoamFile
{
    version     2.0;
    format      ascii;
    class       dictionary;
    object      blockMeshDict;
}

// * * * * * * * * * * * * * * * * * * * * * * * * * * * * * * * * * * * * * //

scale   1;

vertices
(
    (-100 -100 -100)
    ( 100 -100 -100)
    ( 100  100 -100)
    (-100  100 -100)
    (-100 -100  100)
    ( 100 -100  100)
    ( 100  100  100)
    (-100  100  100)
);

blocks
(
    hex (0 1 2 3 4 5 6 7) (40 40 40) simpleGrading (1 1 1)
//    hex (0 1 2 3 4 5 6 7) (70 60 60) simpleGrading (1 1 1)
);

edges
(
);

boundary
(
    walls
    {
        type wall;
        faces
        (
            (2 6 5 1)
            (0 3 2 1)
            (0 4 7 3)
            (4 5 6 7)
        );
    }
    inlet
    {
        type patch;
        faces
        (
            (3 7 6 2)
        );
    }
    outlet
    {
        type patch;
        faces
        (
            (1 5 4 0)
        );
    }
);

// ************************************************************************* //
