/*--------------------------------*- C++ -*----------------------------------*\
| =========                 |                                                 |
| \\      /  F ield         | OpenFOAM: The Open Source CFD Toolbox           |
|  \\    /   O peration     | Version:  4.1                                   |
|   \\  /    A nd           | Web:      www.OpenFOAM.org                      |
|    \\/     M anipulation  |                                                 |
\*---------------------------------------------------------------------------*/
FoamFile
{
    version     2.0;
    format      ascii;
    class       polyBoundaryMesh;
    location    "constant/polyMesh";
    object      boundary;
}
// * * * * * * * * * * * * * * * * * * * * * * * * * * * * * * * * * * * * * //

5
(
    empty1
    {
        type            empty;
        inGroups        1(empty);
        nFaces          16000;
        startFace       15960;
    }
    free
    {
        type            patch;
        nFaces          0;
        startFace       31960;
    }
    sphere
    {
        type            wall;
        inGroups        1(wall);
        nFaces          0;
        startFace       31960;
    }
    procBoundary1to0
    {
        type            processor;
        inGroups        1(processor);
        nFaces          40;
        startFace       31960;
        matchTolerance  0.0001;
        transform       unknown;
        myProcNo        1;
        neighbProcNo    0;
    }
    procBoundary1to2
    {
        type            processor;
        inGroups        1(processor);
        nFaces          40;
        startFace       32000;
        matchTolerance  0.0001;
        transform       unknown;
        myProcNo        1;
        neighbProcNo    2;
    }
)

// ************************************************************************* //
